#
#
#	Boot Exspresso
#
#

exspresso = require('exspresso')

exspresso.run
  APPPATH: 'demo'
  MODPATH: 'addins'
  DOCROOT: 'www'
